       3
 i =        0, time =        0.000, E =       -11.7247754492
  O         4.0000000000        4.0000000000        4.3106120100
  H         4.0000000000        4.7699911200        3.6953408400
  H         4.0000000000        3.2300088800        3.6953408400
       3
 i =        1, time =        0.500, E =       -11.7243548493
  O         4.0005031637        4.0004711459        4.3116097287
  H         4.0032014291        4.7677671376        3.6913005485
  H         3.9888116688        3.2247541919        3.6835439772
       3
 i =        2, time =        1.000, E =       -11.7239292668
  O         4.0010048189        4.0009126258        4.3124347690
  H         4.0064028809        4.7646374010        3.6884420036
  H         3.9776472621        3.2208761557        3.6733063572
       3
 i =        3, time =        1.500, E =       -11.7235670490
  O         4.0015026726        4.0012964594        4.3130641634
  H         4.0096058466        4.7606954960        3.6867658449
  H         3.9665416824        3.2187253305        3.6649919079
       3
 i =        4, time =        2.000, E =       -11.7233243096
  O         4.0019938935        4.0015978108        4.3134819672
  H         4.0128142944        4.7560995412        3.6862347427
  H         3.9555359061        3.2185378235        3.6588910573
       3
 i =        5, time =        2.500, E =       -11.7232332337
  O         4.0024754015        4.0017962219        4.3136801016
  H         4.0160356175        4.7510667853        3.6867760487
  H         3.9446714295        3.2204211279        3.6552046919
       3
 i =        6, time =        3.000, E =       -11.7232961741
  O         4.0029441820        4.0018766132        4.3136586620
  H         4.0192814260        4.7458645553        3.6882871855
  H         3.9339844965        3.2243472783        3.6540338734
       3
 i =        7, time =        3.500, E =       -11.7234866130
  O         4.0033976009        4.0018300537        4.3134256959
  H         4.0225681018        4.7407977111        3.6906435756
  H         3.9235005380        3.2301531773        3.6553754399
       3
 i =        8, time =        4.000, E =       -11.7237565921
  O         4.0038337031        4.0016542829        4.3129964858
  H         4.0259170077        4.7361928170        3.6937085591
  H         3.9132292211        3.2375481459        3.6591234653
       3
 i =        9, time =        4.500, E =       -11.7240489008
  O         4.0042514769        4.0013539412        4.3123923946
  H         4.0293542197        4.7323793910        3.6973444281
  H         3.9031605343        3.2461290049        3.6650765570
       3
 i =       10, time =        5.000, E =       -11.7243111925
  O         4.0046510604        4.0009404558        4.3116393501
  H         4.0329096344        4.7296687962        3.7014234732
  H         3.8932623838        3.2554030058        3.6729508613
       3
 i =       11, time =        5.500, E =       -11.7245084451
  O         4.0050338729        4.0004315315        4.3107660775
  H         4.0366153158        4.7283316828        3.7058378309
  H         3.8834801798        3.2648184604        3.6823982788
       3
 i =       12, time =        6.000, E =       -11.7246301948
  O         4.0054026473        3.9998502351        4.3098022229
  H         4.0405029953        4.7285753544        3.7105069776
  H         3.8737388092        3.2738019194        3.6930287493
       3
 i =       13, time =        6.500, E =       -11.7246901892
  O         4.0057613558        3.9992237054        4.3087765475
  H         4.0446007696        4.7305230097        3.7153819362
  H         3.8639471240        3.2817993987        3.7044347105
       3
 i =       14, time =        7.000, E =       -11.7247184968
  O         4.0061150265        3.9985815743        4.3077153783
  H         4.0489292065        4.7341972635        3.7204456398
  H         3.8540047434        3.2883179264        3.7162153339
       3
 i =       15, time =        7.500, E =       -11.7247488657
  O         4.0064694662        3.9979542105        4.3066414695
  H         4.0534972666        4.7395105097        3.7257093677
  H         3.8438105315        3.2929630547        3.7279981529
       3
 i =       16, time =        8.000, E =       -11.7248059184
  O         4.0068309072        3.9973709080        4.3055733745
  H         4.0582986253        4.7462642933        3.7312056093
  H         3.8332718882        3.2954682455        3.7394561742
       3
 i =       17, time =        8.500, E =       -11.7248966227
  O         4.0072056074        3.9968581329        4.3045253191
  H         4.0633090097        4.7541587563        3.7369783094
  H         3.8223137509        3.2957132479        3.7503196404
       3
 i =       18, time =        9.000, E =       -11.7250085050
  O         4.0075994351        3.9964379371        4.3035075124
  H         4.0684850681        4.7628117598        3.7430716606
  H         3.8108863216        3.2937301669        3.7603823061
       3
 i =       19, time =        9.500, E =       -11.7251143714
  O         4.0080174692        3.9961266386        4.3025267697
  H         4.0737650623        4.7717856952        3.7495188727
  H         3.7989707184        3.2896975854        3.7695027815
       3
 i =       20, time =       10.000, E =       -11.7251811571
  O         4.0084636489        3.9959338633        4.3015873070
  H         4.0790713648        4.7806188475        3.7563322834
  H         3.7865820428        3.2839244256        3.7776018053
       3
 i =       21, time =       10.500, E =       -11.7251796732
  O         4.0089405004        3.9958620106        4.3006915748
  H         4.0843144657        4.7888577127        3.7634959124
  H         3.7737697035        3.2768261061        3.7846564614
       3
 i =       22, time =       11.000, E =       -11.7250924409
  O         4.0094489628        3.9959061707        4.2998410228
  H         4.0893980062        4.7960869597        3.7709611204
  H         3.7606151533        3.2688958894        3.7906923766
       3
 i =       23, time =       11.500, E =       -11.7249179868
  O         4.0099883224        3.9960544802        4.2990367290
  H         4.0942242902        4.8019545468        3.7786455411
  H         3.7472274186        3.2606741302        3.7957748040
       3
 i =       24, time =       12.000, E =       -11.7246712605
  O         4.0105562583        3.9962888702        4.2982798686
  H         4.0986997650        4.8061905493        3.7864350157
  H         3.7337368884        3.2527175700        3.7999992520
       3
 i =       25, time =       12.500, E =       -11.7243807487
  O         4.0111489976        3.9965861429        4.2975720322
  H         4.1027400594        4.8086192477        3.7941879601
  H         3.7202878271        3.2455701532        3.8034820534
       3
 i =       26, time =       13.000, E =       -11.7240832966
  O         4.0117615651        3.9969193012        4.2969154108
  H         4.1062743270        4.8091647140        3.8017415613
  H         3.7070300509        3.2397363444        3.8063512440
       3
 i =       27, time =       13.500, E =       -11.7238177434
  O         4.0123881191        3.9972590453        4.2963128840
  H         4.1092487328        4.8078506366        3.8089190364
  H         3.6941101254        3.2356575398        3.8087378963
       3
 i =       28, time =       14.000, E =       -11.7236184324
  O         4.0130223472        3.9975753499        4.2957680315
  H         4.1116290224        4.8047952911        3.8155374484
  H         3.6816625014        3.2336920660        3.8107681275
       3
 i =       29, time =       14.500, E =       -11.7235095531
  O         4.0136579012        3.9978390391        4.2952850803
  H         4.1134021957        4.8002025808        3.8214156307
  H         3.6698009471        3.2340991413        3.8125560056
       3
 i =       30, time =       15.000, E =       -11.7235011297
  O         4.0142888459        3.9980232844        4.2948688064
  H         4.1145773234        4.7943500442        3.8263818386
  H         3.6586106039        3.2370270849        3.8141974652
       3
 i =       31, time =       15.500, E =       -11.7235872859
  O         4.0149100998        3.9981049611        4.2945244028
  H         4.1151855608        4.7875746167        3.8302808353
  H         3.6481409750        3.2425060283        3.8157653131
       3
 i =       32, time =       16.000, E =       -11.7237471895
  O         4.0155178470        3.9980658044        4.2942573305
  H         4.1152793885        4.7802567948        3.8329801051
  H         3.6384001551        3.2504453992        3.8173053800
       3
 i =       33, time =       16.500, E =       -11.7239488033
  O         4.0161099002        3.9978933118        4.2940731638
  H         4.1149310420        4.7728036723        3.8343749930
  H         3.6293506245        3.2606365596        3.8188338378
       3
 i =       34, time =       17.000, E =       -11.7241551510
  O         4.0166859893        3.9975813530        4.2939774110
  H         4.1142300771        4.7656309640        3.8343927718
  H         3.6209071159        3.2727611040        3.8203359785
       3
 i =       35, time =       17.500, E =       -11.7243322196
  O         4.0172479509        3.9971304552        4.2939753060
  H         4.1132799262        4.7591440456        3.8329955608
  H         3.6129370457        3.2864052880        3.8217666014
       3
 i =       36, time =       18.000, E =       -11.7244569263
  O         4.0177997926        3.9965477496        4.2940715440
  H         4.1121933194        4.7537179570        3.8301822631
  H         3.6052640671        3.3010808761        3.8230522793
       3
 i =       37, time =       18.500, E =       -11.7245230465
  O         4.0183476075        3.9958465767        4.2942699375
  H         4.1110865160        4.7496766117        3.8259896788
  H         3.5976752049        3.3162521937        3.8240956913
       3
 i =       38, time =       19.000, E =       -11.7245430125
  O         4.0188993141        3.9950457634        4.2945729822
  H         4.1100724950        4.7472720116        3.8204929011
  H         3.5899317858        3.3313683974        3.8247821292
       3
 i =       39, time =       19.500, E =       -11.7245443061
  O         4.0194642090        3.9941685971        4.2949813322
  H         4.1092535037        4.7466649575        3.8138050430
  H         3.5817839924        3.3458990327        3.8249880984
       3
 i =       40, time =       20.000, E =       -11.7245607429
  O         4.0200523300        3.9932415499        4.2954932023
  H         4.1087136634        4.7479093166        3.8060762712
  H         3.5729883734        3.3593700314        3.8245917682
       3
 i =       41, time =       20.500, E =       -11.7246208227
  O         4.0206736462        3.9922928295        4.2961037317
  H         4.1085125385        4.7509421167        3.7974920766
  H         3.5633271189        3.3713966177        3.8234848068
       3
 i =       42, time =       21.000, E =       -11.7247367632
  O         4.0213371197        3.9913508594        4.2968043589
  H         4.1086806664        4.7555814890        3.7882706513
  H         3.5526274337        3.3817094811        3.8215849215
       3
 i =       43, time =       21.500, E =       -11.7248980965
  O         4.0220497083        3.9904427982        4.2975822901
  H         4.1092178745        4.7615338153        3.7786590705
  H         3.5407790471        3.3901711411        3.8188481155
       3
 i =       44, time =       22.000, E =       -11.7250724080
  O         4.0228154020        3.9895931903        4.2984201624
  H         4.1100948193        4.7684103553        3.7689278402
  H         3.5277479659        3.3967807379        3.8152794927
       3
 i =       45, time =       22.500, E =       -11.7252133268
  O         4.0236343957        3.9888228112        4.2992960075
  H         4.1112576372        4.7757523434        3.7593633602
  H         3.5135849619        3.4016672589        3.8109413632
       3
 i =       46, time =       23.000, E =       -11.7252733265
  O         4.0245024962        3.9881477470        4.3001836044
  H         4.1126350412        4.7830622972        3.7502580877
  H         3.4984278818        3.4050728471        3.8059574864
       3
 i =       47, time =       23.500, E =       -11.7252174330
  O         4.0254108542        3.9875787369        4.3010532714
  H         4.1141467998        4.7898384382        3.7418985981
  H         3.4824974241        3.4073288113        3.8005124329
       3
 i =       48, time =       24.000, E =       -11.7250339569
  O         4.0263460826        3.9871208122        4.3018730828
  H         4.1157124816        4.7956088399        3.7345523043
  H         3.4660865211        3.4088272156        3.7948455613
       3
 i =       49, time =       24.500, E =       -11.7247394722
  O         4.0272907958        3.9867732514        4.3026104603
  H         4.1172594376        4.7999624489        3.7284537618
  H         3.4495437868        3.4099905657        3.7892394415
       3
 i =       50, time =       25.000, E =       -11.7243767963
  O         4.0282245420        3.9865298482        4.3032340100
  H         4.1187294157        4.8025748878        3.7237917658
  H         3.4332521138        3.4112417553        3.7840036043
       3
 i =       51, time =       25.500, E =       -11.7240063599
  O         4.0291250403        3.9863794474        4.3037154386
  H         4.1200835551        4.8032279453        3.7206982760
  H         3.4176040353        3.4129760644        3.7794552024
       3
 i =       52, time =       26.000, E =       -11.7236929116
  O         4.0299695903        3.9863066783        4.3040313588
  H         4.1213058297        4.8018224141        3.7192400444
  H         3.4029759095        3.4155366857        3.7758987176
       3
 i =       53, time =       26.500, E =       -11.7234907269
  O         4.0307365037        3.9862928118        4.3041648059
  H         4.1224051794        4.7983843573        3.7194136312
  H         3.3897030632        3.4191948512        3.7736068761
       3
 i =       54, time =       27.000, E =       -11.7234310023
  O         4.0314064261        3.9863166925        4.3041063209
  H         4.1234166051        4.7930649862        3.7211443471
  H         3.3780577145        3.4241351540        3.7728045139
       3
 i =       55, time =       27.500, E =       -11.7235146700
  O         4.0319634559        3.9863557324        4.3038545057
  H         4.1244014197        4.7861342291        3.7242895332
  H         3.3682309630        3.4304462178        3.7736564830
       3
 i =       56, time =       28.000, E =       -11.7237125443
  O         4.0323960081        3.9863869730        4.3034160067
  H         4.1254467032        4.7779679541        3.7286464135
  H         3.3603196197        3.4381165994        3.7762600572
       3
 i =       57, time =       28.500, E =       -11.7239728801
  O         4.0326974046        3.9863882285        4.3028049316
  H         4.1266638221        4.7690288427        3.7339644455
  H         3.3543183241        3.4470357814        3.7806418435
       3
 i =       58, time =       29.000, E =       -11.7242345778
  O         4.0328661863        3.9863392897        4.3020417473
  H         4.1281856998        4.7598411703        3.7399616226
  H         3.3501173138        3.4570002764        3.7867589700
       3
 i =       59, time =       29.500, E =       -11.7244428338
  O         4.0329061507        3.9862231293        4.3011517521
  H         4.1301623705        4.7509602365        3.7463436009
  H         3.3475062722        3.4677250680        3.7945042109
       3
 i =       60, time =       30.000, E =       -11.7245632985
  O         4.0328261208        3.9860270053        4.3001632540
  H         4.1327542932        4.7429377736        3.7528239880
  H         3.3461846945        3.4788606788        3.8037146144
       3
 i =       61, time =       30.500, E =       -11.7245908931
  O         4.0326394573        3.9857433441        4.2991056182
  H         4.1361229812        4.7362852258        3.7591438266
  H         3.3457789847        3.4900158836        3.8141830158
       3
 i =       62, time =       31.000, E =       -11.7245504359
  O         4.0323633505        3.9853702946        4.2980073609
  H         4.1404188191        4.7314372586        3.7650883610
  H         3.3458658911        3.5007854014        3.8256715216
       3
 i =       63, time =       31.500, E =       -11.7244881781
  O         4.0320179432        3.9849118880        4.2968944604
  H         4.1457665242        4.7287182453        3.7704995885
  H         3.3460009618        3.5107808714        3.8379257692
       3
 i =       64, time =       32.000, E =       -11.7244561119
  O         4.0316253669        3.9843777766        4.2957890435
  H         4.1522494525        4.7283149221        3.7752835292
  H         3.3457495408        3.5196623402        3.8506885160
       3
 i =       65, time =       32.500, E =       -11.7244937672
  O         4.0312087559        3.9837825789        4.2947085389
  H         4.1598947786        4.7302584006        3.7794119316
  H         3.3447172321        3.5271666519        3.8637113583
       3
 i =       66, time =       33.000, E =       -11.7246138027
  O         4.0307913044        3.9831448670        4.2936653470
  H         4.1686619927        4.7344184718        3.7829184714
  H         3.3425763792        3.5331292143        3.8767637836
       3
 i =       67, time =       33.500, E =       -11.7247967684
  O         4.0303953933        3.9824858679        4.2926669978
  H         4.1784369922        4.7405118334        3.7858900659
  H         3.3390858204        3.5374963860        3.8896393519
       3
 i =       68, time =       34.000, E =       -11.7249969597
  O         4.0300417977        3.9818279725        4.2917167045
  H         4.1890332136        4.7481239081        3.7884543940
  H         3.3341023522        3.5403273265        3.9021593764
       3
 i =       69, time =       34.500, E =       -11.7251569110
  O         4.0297489721        3.9811931687        4.2908141869
  H         4.2001999715        4.7567417856        3.7907650450
  H         3.3275837215        3.5417859205        3.9141747175
       3
 i =       70, time =       35.000, E =       -11.7252249973
  O         4.0295324234        3.9806015255        4.2899566267
  H         4.2116368899        4.7657942237        3.7929858469
  H         3.3195841608        3.5421248515        3.9255662815
       3
 i =       71, time =       35.500, E =       -11.7251701444
  O         4.0294041854        3.9800698416        4.2891396382
  H         4.2230124073        4.7746940090        3.7952758423
  H         3.3102442107        3.5416646795        3.9362446424
       3
 i =       72, time =       36.000, E =       -11.7249895563
  O         4.0293724194        3.9796105526        4.2883581648
  H         4.2339840564        4.7828783287        3.7977760907
  H         3.2997767954        3.5407708224        3.9461490080
       3
 i =       73, time =       36.500, E =       -11.7247083403
  O         4.0294411627        3.9792309560        4.2876072443
  H         4.2442183938        4.7898438475        3.8005991036
  H         3.2884512712        3.5398307784        3.9552456294
       3
 i =       74, time =       37.000, E =       -11.7243724993
  O         4.0296102507        3.9789327840        4.2868826165
  H         4.2534089862        4.7951745224        3.8038213263
  H         3.2765766825        3.5392330966        3.9635256893
       3
 i =       75, time =       37.500, E =       -11.7240381408
  O         4.0298754292        3.9787121212        4.2861811707
  H         4.2612915047        4.7985614845        3.8074786457
  H         3.2644848889        3.5393487964        3.9710026761
       3
 i =       76, time =       38.000, E =       -11.7237598732
  O         4.0302286547        3.9785596453        4.2855012394
  H         4.2676555762        4.7998152136        3.8115647519
  H         3.2525139403        3.5405153726        3.9777093677
       3
 i =       77, time =       38.500, E =       -11.7235807075
  O         4.0306585792        3.9784611475        4.2848427606
  H         4.2723533757        4.7988708355        3.8160318396
  H         3.2409917924        3.5430232418        3.9836945549
       3
 i =       78, time =       39.000, E =       -11.7235249217
  O         4.0311511919        3.9783982816        4.2842073200
  H         4.2753051810        4.7957874923        3.8207933290
  H         3.2302205654        3.5471044788        3.9890196453
       3
 i =       79, time =       39.500, E =       -11.7235946149
  O         4.0316905808        3.9783494972        4.2835980809
  H         4.2765021571        4.7907425692        3.8257282786
  H         3.2204616709        3.5529237753        3.9937553704
       3
 i =       80, time =       40.000, E =       -11.7237701227
  O         4.0322597791        3.9782911136        4.2830196095
  H         4.2760065583        4.7840213915        3.8306872389
  H         3.2119221773        3.5605716971        3.9979786989
       3
 i =       81, time =       40.500, E =       -11.7240140275
  O         4.0328416616        3.9781984937        4.2824776087
  H         4.2739494478        4.7760028389        3.8354993272
  H         3.2047428549        3.5700604383        4.0017699874
       3
 i =       82, time =       41.000, E =       -11.7242781008
  O         4.0334198606        3.9780472706        4.2819785801
  H         4.2705259513        4.7671413073        3.8399802529
  H         3.1989883867        3.5813223892        4.0052103254
       3
 i =       83, time =       41.500, E =       -11.7245121957
  O         4.0339796663        3.9778145686        4.2815294391
  H         4.2659879995        4.7579455255        3.8439409535
  H         3.1946403383        3.5942119354        4.0083790033
       3
 i =       84, time =       42.000, E =       -11.7246738779
  O         4.0345088680        3.9774801529        4.2811371126
  H         4.2606344672        4.7489547955        3.8471964378
  H         3.1915936589        3.6085109687        4.0113510609
       3
 i =       85, time =       42.500, E =       -11.7247374025
  O         4.0349984904        3.9770274385        4.2808081410
  H         4.2547985705        4.7407132517        3.8495744996
  H         3.1896576001        3.6239386127        4.0141948850
       3
 i =       86, time =       43.000, E =       -11.7247003900
  O         4.0354433553        3.9764443227        4.2805482765
  H         4.2488324550        4.7337424345        3.8509242579
  H         3.1885622122        3.6401654402        4.0169700523
       3
 i =       87, time =       43.500, E =       -11.7245862877
  O         4.0358424113        3.9757238195        4.2803620666
  H         4.2430890357        4.7285125801        3.8511245295
  H         3.1879712696        3.6568321049        4.0197255585
       3
 i =       88, time =       44.000, E =       -11.7244407995
  O         4.0361987681        3.9748645023        4.2802523983
  H         4.2379016544        4.7254132879        3.8500921949
  H         3.1875020689        3.6735716535        4.0224986977
       3
 i =       89, time =       44.500, E =       -11.7243215213
  O         4.0365193868        3.9738707518        4.2802199958
  H         4.2335628349        4.7247251484        3.8477904215
  H         3.1867515916        3.6900339585        4.0253148072
       3
 i =       90, time =       45.000, E =       -11.7242822069
  O         4.0368144024        3.9727527924        4.2802629007
  H         4.2303042036        4.7265949862        3.8442361281
  H         3.1853273319        3.7059098986        4.0281880554
       3
 i =       91, time =       45.500, E =       -11.7243556661
  O         4.0370961011        3.9715264938        4.2803759911
  H         4.2282801379        4.7310179945        3.8395057227
  H         3.1828798916        3.7209523762        4.0311233367
       3
 i =       92, time =       46.000, E =       -11.7245408687
  O         4.0373776273        3.9702129341        4.2805506076
  H         4.2275576009        4.7378296954        3.8337380781
  H         3.1791336602        3.7349912883        4.0341192295
       3
 i =       93, time =       46.500, E =       -11.7247993073
  O         4.0376715485        3.9688377473        4.2807743519
  H         4.2281138716        4.7467095231        3.8271338985
  H         3.1739118710        3.7479403035        4.0371718332
       3
 i =       94, time =       47.000, E =       -11.7250629796
  O         4.0379884296        3.9674302784        4.2810311184
  H         4.2298426726        4.7571964479        3.8199508412
  H         3.1671531002        3.7597946472        4.0402791418
       3
 i =       95, time =       47.500, E =       -11.7252523920
  O         4.0383355667        3.9660225398        4.2813014206
  H         4.2325678589        4.7687158904        3.8124939398
  H         3.1589176793        3.7706207541        4.0434454384
       3
 i =       96, time =       48.000, E =       -11.7252992730
  O         4.0387160121        3.9646479492        4.2815630590
  H         4.2360626550        4.7806160244        3.8051012634
  H         3.1493839346        3.7805399978        4.0466850330
       3
 i =       97, time =       48.500, E =       -11.7251668397
  O         4.0391279914        3.9633398564        4.2817921298
  H         4.2400717376        4.7922104167        3.7981255191
  H         3.1388353550        3.7897094414        4.0500246517
       3
 i =       98, time =       49.000, E =       -11.7248613709
  O         4.0395647763        3.9621299242        4.2819643130
  H         4.2443334168        4.8028230193        3.7919130939
  H         3.1276404290        3.7983025347        4.0535039503
       3
 i =       99, time =       49.500, E =       -11.7244320036
  O         4.0400150326        3.9610464914        4.2820563162
  H         4.2485996407        4.8118313164        3.7867827006
  H         3.1162271215        3.8064919617        4.0571739436
       3
 i =      100, time =       50.000, E =       -11.7239594790
  O         4.0404635987        3.9601130608        4.2820473266
  H         4.2526524647        4.8187040465        3.7830057402
  H         3.1050540446        3.8144359170        4.0610935984
